<?xml version="1.0" encoding="UTF-8"?>
<configuration>
	<input>
		<net-file value="network.net.xml"/>
		<route-files value="routes.rou.xml"/>
		<additional-files value="platforms.add.xml"/>
	</input>
	<time>
		<begin value="0"/>
		<end value="432000"/>
	</time>
	<report>
		<no-step-log value="true"/>
	</report>
	<output>
		<tripinfo-output value="tripinfo.xml"/>
		<stop-output value="stopinfo.xml"/>
		<summary-output value="summary.xml"/>
	</output>
</configuration>