<?xml version="1.0" encoding="UTF-8"?>
<edges>
	<edge id="288_514" from="288" to="514" priority="2" numLanes="1" length="2400.0" speed="27.78" allow="rail" shape="4.392088,50.300903 4.396297,50.306993 4.396623,50.307482 4.396875,50.307886 4.397052,50.308184 4.397234,50.30851 4.397396,50.30882 4.397561,50.309157 4.397859,50.30982 4.398906,50.312257 4.399009,50.312475 4.399104,50.312655 4.399211,50.312839 4.399307,50.312985 4.399476,50.313209 4.399656,50.313417 4.399875,50.313637 4.400084,50.313824 4.400504,50.314164 4.401533,50.314955 4.402555,50.315747 4.40276,50.31592 4.40296,50.316098 4.403067,50.316198 4.403173,50.316303 4.403335,50.316472 4.40344,50.316587 4.403547,50.316712 4.403667,50.316858 4.403783,50.317011 4.403837,50.317083 4.403889,50.317157 4.403982,50.317294 4.404025,50.317361 4.404067,50.317429 4.404148,50.317566 4.404235,50.317723 4.404316,50.317883 4.404378,50.318017 4.404437,50.318153 4.404487,50.318278 4.404533,50.318406 4.404621,50.318698 4.404834,50.319606 4.405047,50.320542 "/>
	<edge id="288_147" from="288" to="147" priority="2" numLanes="1" length="2320.0" speed="27.78" allow="rail" shape="4.392088,50.300903 4.391761,50.300387 4.391555,50.300082 4.391444,50.2999 4.391382,50.299789 4.391313,50.299658 4.391183,50.299383 4.390871,50.298614 4.39012,50.296725 4.390062,50.296566 4.390009,50.296411 4.389909,50.296058 4.389877,50.295911 4.389849,50.295762 4.38983,50.295631 4.389815,50.295496 4.389798,50.295212 4.389797,50.295035 4.3898,50.294946 4.389804,50.294859 4.38982,50.294649 4.389842,50.294506 4.38987,50.294362 4.3899,50.294242 4.389932,50.294126 4.390023,50.293863 4.390117,50.293645 4.390171,50.293535 4.390199,50.293482 4.390229,50.293428 4.390329,50.293262 4.390467,50.29306 4.390618,50.292868 4.39077,50.292696 4.390961,50.292502 4.391166,50.292315 4.3914,50.292119 4.391657,50.291923 4.391781,50.291834 4.391903,50.291749 4.392187,50.291562 4.39241,50.291424 4.392528,50.291355 4.392646,50.291287 4.392983,50.291106 4.393358,50.290919 4.393798,50.290722 4.394284,50.290527 4.394732,50.290367 4.395006,50.290278 4.395285,50.290193 4.395719,50.29007 4.396155,50.289952 4.399045,50.289188 4.399835,50.288988 4.400729,50.288766 4.401126,50.288657 4.401366,50.288582 4.401626,50.288492 4.401852,50.288402 4.402256,50.288217 4.402624,50.288012 4.403044,50.287736 4.405998,50.285623 "/>
	<edge id="147_976" from="147" to="976" priority="2" numLanes="1" length="2610.0" speed="27.78" allow="rail" shape="4.405998,50.285623 4.406411,50.285328 4.406616,50.28518 4.406816,50.285034 4.407012,50.284888 4.407204,50.284741 4.40751,50.284495 4.407786,50.28426 4.40805,50.284016 4.408319,50.283751 4.408453,50.283614 4.408578,50.283482 4.408837,50.283197 4.409083,50.282913 4.409826,50.281989 4.411971,50.27926 4.412327,50.278853 4.412658,50.278546 4.413095,50.278206 4.419439,50.273547 4.420004,50.273156 4.420546,50.272813 4.421038,50.272531 4.42157,50.272253 4.422198,50.271958 4.422767,50.271716 4.427108,50.270015 4.430333,50.268758 "/>
	<edge id="147_288" from="147" to="288" priority="2" numLanes="1" length="2320.0" speed="27.78" allow="rail" shape="4.405998,50.285623 4.403044,50.287736 4.402624,50.288012 4.402256,50.288217 4.401852,50.288402 4.401626,50.288492 4.401366,50.288582 4.401126,50.288657 4.400729,50.288766 4.399835,50.288988 4.399045,50.289188 4.396155,50.289952 4.395719,50.29007 4.395285,50.290193 4.395006,50.290278 4.394732,50.290367 4.394284,50.290527 4.393798,50.290722 4.393358,50.290919 4.392983,50.291106 4.392646,50.291287 4.392528,50.291355 4.39241,50.291424 4.392187,50.291562 4.391903,50.291749 4.391781,50.291834 4.391657,50.291923 4.3914,50.292119 4.391166,50.292315 4.390961,50.292502 4.39077,50.292696 4.390618,50.292868 4.390467,50.29306 4.390329,50.293262 4.390229,50.293428 4.390199,50.293482 4.390171,50.293535 4.390117,50.293645 4.390023,50.293863 4.389932,50.294126 4.3899,50.294242 4.38987,50.294362 4.389842,50.294506 4.38982,50.294649 4.389804,50.294859 4.3898,50.294946 4.389797,50.295035 4.389798,50.295212 4.389815,50.295496 4.38983,50.295631 4.389849,50.295762 4.389877,50.295911 4.389909,50.296058 4.390009,50.296411 4.390062,50.296566 4.39012,50.296725 4.390871,50.298614 4.391183,50.299383 4.391313,50.299658 4.391382,50.299789 4.391444,50.2999 4.391555,50.300082 4.391761,50.300387 4.392088,50.300903 "/>
	<edge id="514_288" from="514" to="288" priority="2" numLanes="1" length="2400.0" speed="27.78" allow="rail" shape="4.405047,50.320542 4.404834,50.319606 4.404621,50.318698 4.404533,50.318406 4.404487,50.318278 4.404437,50.318153 4.404378,50.318017 4.404316,50.317883 4.404235,50.317723 4.404148,50.317566 4.404067,50.317429 4.404025,50.317361 4.403982,50.317294 4.403889,50.317157 4.403837,50.317083 4.403783,50.317011 4.403667,50.316858 4.403547,50.316712 4.40344,50.316587 4.403335,50.316472 4.403173,50.316303 4.403067,50.316198 4.40296,50.316098 4.40276,50.31592 4.402555,50.315747 4.401533,50.314955 4.400504,50.314164 4.400084,50.313824 4.399875,50.313637 4.399656,50.313417 4.399476,50.313209 4.399307,50.312985 4.399211,50.312839 4.399104,50.312655 4.399009,50.312475 4.398906,50.312257 4.397859,50.30982 4.397561,50.309157 4.397396,50.30882 4.397234,50.30851 4.397052,50.308184 4.396875,50.307886 4.396623,50.307482 4.396297,50.306993 4.392088,50.300903 "/>
	<edge id="976_147" from="976" to="147" priority="2" numLanes="1" length="2610.0" speed="27.78" allow="rail" shape="4.430333,50.268758 4.427108,50.270015 4.422767,50.271716 4.422198,50.271958 4.42157,50.272253 4.421038,50.272531 4.420546,50.272813 4.420004,50.273156 4.419439,50.273547 4.413095,50.278206 4.412658,50.278546 4.412327,50.278853 4.411971,50.27926 4.409826,50.281989 4.409083,50.282913 4.408837,50.283197 4.408578,50.283482 4.408453,50.283614 4.408319,50.283751 4.40805,50.284016 4.407786,50.28426 4.40751,50.284495 4.407204,50.284741 4.407012,50.284888 4.406816,50.285034 4.406616,50.28518 4.406411,50.285328 4.405998,50.285623 "/>
</edges>