<?xml version="1.0" encoding="UTF-8"?>

<!-- generated on 2026-03-02 16:48:14 by Eclipse SUMO netconvert Version 1.22.0
<netconvertConfiguration xmlns:xsi="http://www.w3.org/2001/XMLSchema-instance" xsi:noNamespaceSchemaLocation="http://sumo.dlr.de/xsd/netconvertConfiguration.xsd">

    <input>
        <node-files value="new_start/stations.nod.xml"/>
        <edge-files value="new_start/edges.edg.xml"/>
    </input>

    <output>
        <output-file value="new_start/network.net.xml"/>
    </output>

    <projection>
        <proj.utm value="true"/>
    </projection>

    <railway>
        <railway.signal.guess.by-stops value="true"/>
    </railway>

</netconvertConfiguration>
-->

<net version="1.20" junctionCornerDetail="5" limitTurnSpeed="5.50" xmlns:xsi="http://www.w3.org/2001/XMLSchema-instance" xsi:noNamespaceSchemaLocation="http://sumo.dlr.de/xsd/net_file.xsd">

    <location netOffset="-598989.75,-5569491.72" convBoundary="0.00,0.00,2943.53,5723.26" origBoundary="4.389797,50.268758,4.430333,50.320542" projParameter="+proj=utm +zone=31 +ellps=WGS84 +datum=WGS84 +units=m +no_defs"/>

    <edge id=":147_0" function="internal">
        <lane id=":147_0_0" index="0" allow="rail" speed="27.78" length="0.30" shape="1175.22,1843.08 1175.02,1843.30"/>
    </edge>
    <edge id=":147_1" function="internal">
        <lane id=":147_1_0" index="0" allow="rail" speed="27.78" length="0.30" shape="1172.68,1841.12 1172.88,1840.90"/>
    </edge>
    <edge id=":288_0" function="internal">
        <lane id=":288_0_0" index="0" allow="rail" speed="27.78" length="0.30" shape="149.85,3523.11 149.73,3522.83"/>
    </edge>
    <edge id=":288_1" function="internal">
        <lane id=":288_1_0" index="0" allow="rail" speed="27.78" length="0.20" shape="152.72,3521.68 152.79,3521.87"/>
    </edge>

    <edge id="147_288" from="147" to="288" priority="2" length="2320.00" shape="1173.95,1842.10 959.09,2073.06 928.59,2103.18 901.95,2125.48 872.78,2145.51 856.49,2155.21 837.79,2164.87 820.53,2172.89 792.03,2184.48 727.88,2207.96 671.19,2229.14 463.73,2310.22 432.43,2322.76 401.26,2335.85 381.21,2344.93 361.51,2354.46 329.26,2371.65 294.24,2392.69 262.49,2414.00 235.39,2434.30 211.01,2453.97 202.46,2461.37 193.91,2468.89 177.74,2483.94 157.12,2504.35 148.26,2513.64 139.24,2523.37 120.53,2544.82 103.45,2566.30 88.46,2586.82 74.45,2608.13 63.27,2627.05 52.12,2648.20 41.87,2670.48 34.40,2688.80 32.15,2694.76 30.05,2700.62 25.97,2712.78 18.83,2736.89 11.80,2766.01 9.28,2778.87 6.89,2792.17 4.60,2808.14 2.74,2824.01 1.16,2847.34 0.69,2857.01 0.30,2866.90 0.00,2886.58 0.62,2918.18 1.41,2933.21 2.49,2947.80 4.18,2964.40 6.15,2980.79 12.54,3020.17 15.99,3037.47 19.79,3055.23 69.36,3266.26 89.98,3352.17 98.67,3382.92 103.31,3397.58 107.49,3410.00 115.02,3430.38 129.06,3464.57 151.27,3522.38">
        <lane id="147_288_0" index="0" allow="rail" speed="27.78" length="2320.00" shape="1175.02,1843.30 960.24,2074.17 929.67,2104.37 902.92,2126.76 873.64,2146.86 857.27,2156.61 838.49,2166.31 821.17,2174.36 792.60,2185.97 728.43,2209.46 671.76,2230.63 464.32,2311.71 433.04,2324.24 401.90,2337.32 381.89,2346.38 362.23,2355.89 330.05,2373.05 295.10,2394.04 263.41,2415.31 236.37,2435.56 212.03,2455.20 203.51,2462.58 194.98,2470.08 178.85,2485.09 158.26,2505.47 149.42,2514.73 140.43,2524.44 121.76,2545.84 104.72,2567.27 89.78,2587.73 75.81,2608.98 64.67,2627.83 53.55,2648.91 43.34,2671.11 35.89,2689.38 33.65,2695.32 31.56,2701.14 27.50,2713.26 20.37,2737.31 13.36,2766.35 10.85,2779.16 8.47,2792.42 6.19,2808.35 4.33,2824.16 2.76,2847.43 2.29,2857.08 1.90,2866.94 1.60,2886.58 2.22,2918.12 3.01,2933.11 4.08,2947.66 5.77,2964.23 7.73,2980.56 14.11,3019.89 17.56,3037.15 21.35,3054.88 70.91,3265.89 91.53,3351.77 100.20,3382.46 104.83,3397.08 109.00,3409.47 116.51,3429.80 130.54,3463.98 152.72,3521.68"/>
    </edge>
    <edge id="147_976" from="147" to="976" priority="2" length="2610.00" shape="1173.95,1842.10 1203.99,1809.85 1218.90,1793.67 1233.46,1777.71 1247.73,1761.74 1261.72,1745.66 1284.03,1718.72 1304.19,1692.96 1323.51,1666.19 1343.23,1637.09 1353.06,1622.03 1362.25,1607.53 1381.30,1576.19 1399.42,1544.94 1454.30,1443.21 1612.87,1142.69 1639.09,1097.91 1663.32,1064.23 1695.17,1027.02 2157.04,517.61 2198.13,474.90 2237.48,437.50 2273.14,406.82 2311.64,376.63 2357.01,344.69 2398.07,318.55 2711.03,135.35 2943.53,0.00">
        <lane id="147_976_0" index="0" allow="rail" speed="27.78" length="2610.00" shape="1172.88,1840.90 1202.82,1808.77 1217.73,1792.59 1232.27,1776.64 1246.53,1760.68 1260.50,1744.62 1282.79,1717.71 1302.91,1692.00 1322.20,1665.27 1341.90,1636.20 1351.72,1621.17 1360.89,1606.68 1379.92,1575.37 1398.02,1544.16 1452.88,1442.46 1611.47,1141.91 1637.74,1097.04 1662.06,1063.24 1693.97,1025.96 2155.88,516.52 2197.00,473.77 2236.41,436.32 2272.12,405.58 2310.68,375.35 2356.12,343.36 2397.24,317.19 2710.22,133.97 2942.72,-1.38"/>
    </edge>
    <edge id="288_147" from="288" to="147" priority="2" length="2320.00" shape="151.27,3522.38 129.06,3464.57 115.02,3430.38 107.49,3410.00 103.31,3397.58 98.67,3382.92 89.98,3352.17 69.36,3266.26 19.79,3055.23 15.99,3037.47 12.54,3020.17 6.15,2980.79 4.18,2964.40 2.49,2947.80 1.41,2933.21 0.62,2918.18 0.00,2886.58 0.30,2866.90 0.69,2857.01 1.16,2847.34 2.74,2824.01 4.60,2808.14 6.89,2792.17 9.28,2778.87 11.80,2766.01 18.83,2736.89 25.97,2712.78 30.05,2700.62 32.15,2694.76 34.40,2688.80 41.87,2670.48 52.12,2648.20 63.27,2627.05 74.45,2608.13 88.46,2586.82 103.45,2566.30 120.53,2544.82 139.24,2523.37 148.26,2513.64 157.12,2504.35 177.74,2483.94 193.91,2468.89 202.46,2461.37 211.01,2453.97 235.39,2434.30 262.49,2414.00 294.24,2392.69 329.26,2371.65 361.51,2354.46 381.21,2344.93 401.26,2335.85 432.43,2322.76 463.73,2310.22 671.19,2229.14 727.88,2207.96 792.03,2184.48 820.53,2172.89 837.79,2164.87 856.49,2155.21 872.78,2145.51 901.95,2125.48 928.59,2103.18 959.09,2073.06 1173.95,1842.10">
        <lane id="288_147_0" index="0" allow="rail" speed="27.78" length="2320.00" shape="149.73,3522.83 127.57,3465.16 113.53,3430.97 105.98,3410.53 101.79,3398.07 97.13,3383.38 88.43,3352.58 67.80,3266.62 18.23,3055.58 14.43,3037.80 10.96,3020.45 4.57,2981.01 2.59,2964.58 0.90,2947.94 -0.19,2933.31 -0.98,2918.24 -1.60,2886.58 -1.30,2866.85 -0.90,2856.94 -0.44,2847.25 1.14,2823.86 3.01,2807.93 5.31,2791.91 7.71,2778.57 10.23,2765.67 17.28,2736.48 24.45,2712.30 28.54,2700.09 30.65,2694.21 32.91,2688.22 40.40,2669.84 50.68,2647.49 61.87,2626.27 73.10,2607.29 87.15,2585.90 102.18,2565.33 119.30,2543.79 138.05,2522.30 147.09,2512.54 155.98,2503.23 176.63,2482.78 192.84,2467.70 201.41,2460.17 209.98,2452.74 234.40,2433.03 261.56,2412.70 293.38,2391.34 328.47,2370.26 360.78,2353.04 380.53,2343.48 400.62,2334.39 431.82,2321.28 463.14,2308.73 670.62,2227.65 727.32,2206.46 791.45,2182.98 819.89,2171.42 837.08,2163.43 855.72,2153.81 871.92,2144.16 900.98,2124.21 927.51,2102.00 957.94,2071.95 1172.68,1841.12"/>
    </edge>
    <edge id="288_514" from="288" to="514" priority="2" length="2400.00" shape="151.27,3522.38 438.32,4205.10 460.51,4259.91 477.61,4305.16 489.59,4338.53 501.87,4375.02 512.76,4409.70 523.80,4447.39 543.64,4521.51 613.09,4793.86 619.97,4818.24 626.36,4838.38 633.59,4858.98 640.12,4875.34 651.69,4900.48 664.07,4923.84 679.20,4948.60 693.69,4969.67 722.88,5008.03 794.48,5097.36 865.58,5186.79 879.82,5206.30 893.68,5226.36 901.09,5237.62 908.41,5249.43 919.59,5268.44 926.83,5281.37 934.18,5295.41 942.42,5311.81 950.36,5328.97 954.05,5337.05 957.60,5345.35 963.93,5360.70 966.85,5368.21 969.70,5375.83 975.18,5391.17 981.04,5408.74 986.47,5426.64 990.61,5441.62 994.52,5456.82 997.82,5470.79 1000.82,5485.08 1006.48,5517.67 1019.73,5618.91 1032.93,5723.26">
        <lane id="288_514_0" index="0" allow="rail" speed="27.78" length="2400.00" shape="152.79,3521.87 439.79,4204.49 462.00,4259.32 479.11,4304.61 491.10,4338.01 503.39,4374.53 514.29,4409.24 525.34,4446.96 545.18,4521.10 614.64,4793.45 621.50,4817.78 627.88,4837.87 635.09,4858.42 641.59,4874.71 653.12,4899.77 665.46,4923.05 680.54,4947.72 694.98,4968.73 724.14,5007.05 795.73,5096.36 866.86,5185.82 881.12,5205.37 895.01,5225.46 902.44,5236.76 909.78,5248.61 920.98,5267.65 928.23,5280.61 935.61,5294.68 943.86,5311.11 951.81,5328.30 955.51,5336.40 959.07,5344.73 965.42,5360.11 968.35,5367.64 971.20,5375.28 976.69,5390.65 982.57,5408.26 988.01,5426.20 992.15,5441.21 996.07,5456.44 999.38,5470.44 1002.40,5484.78 1008.06,5517.43 1021.32,5618.70 1034.52,5723.06"/>
    </edge>
    <edge id="514_288" from="514" to="288" priority="2" length="2400.00" shape="1032.93,5723.26 1019.73,5618.91 1006.48,5517.67 1000.82,5485.08 997.82,5470.79 994.52,5456.82 990.61,5441.62 986.47,5426.64 981.04,5408.74 975.18,5391.17 969.70,5375.83 966.85,5368.21 963.93,5360.70 957.60,5345.35 954.05,5337.05 950.36,5328.97 942.42,5311.81 934.18,5295.41 926.83,5281.37 919.59,5268.44 908.41,5249.43 901.09,5237.62 893.68,5226.36 879.82,5206.30 865.58,5186.79 794.48,5097.36 722.88,5008.03 693.69,4969.67 679.20,4948.60 664.07,4923.84 651.69,4900.48 640.12,4875.34 633.59,4858.98 626.36,4838.38 619.97,4818.24 613.09,4793.86 543.64,4521.51 523.80,4447.39 512.76,4409.70 501.87,4375.02 489.59,4338.53 477.61,4305.16 460.51,4259.91 438.32,4205.10 151.27,3522.38">
        <lane id="514_288_0" index="0" allow="rail" speed="27.78" length="2400.00" shape="1031.34,5723.46 1018.15,5619.11 1004.89,5517.91 999.25,5485.38 996.26,5471.14 992.97,5457.21 989.06,5442.04 984.94,5427.09 979.52,5409.23 973.67,5391.69 968.20,5376.38 965.36,5368.78 962.45,5361.30 956.12,5345.97 952.59,5337.70 948.90,5329.64 940.98,5312.50 932.76,5296.14 925.42,5282.13 918.21,5269.24 907.05,5250.26 899.74,5238.48 892.35,5227.25 878.51,5207.22 864.31,5187.76 793.23,5098.36 721.62,5009.02 692.39,4970.61 677.86,4949.47 662.68,4924.63 650.25,4901.18 638.65,4875.97 632.09,4859.54 624.84,4838.89 618.44,4818.70 611.55,4794.28 542.09,4521.91 522.26,4447.83 511.23,4410.17 500.35,4375.52 488.08,4339.06 476.11,4305.71 459.02,4260.49 436.84,4205.71 149.85,3523.11"/>
    </edge>
    <edge id="976_147" from="976" to="147" priority="2" length="2610.00" shape="2943.53,0.00 2711.03,135.35 2398.07,318.55 2357.01,344.69 2311.64,376.63 2273.14,406.82 2237.48,437.50 2198.13,474.90 2157.04,517.61 1695.17,1027.02 1663.32,1064.23 1639.09,1097.91 1612.87,1142.69 1454.30,1443.21 1399.42,1544.94 1381.30,1576.19 1362.25,1607.53 1353.06,1622.03 1343.23,1637.09 1323.51,1666.19 1304.19,1692.96 1284.03,1718.72 1261.72,1745.66 1247.73,1761.74 1233.46,1777.71 1218.90,1793.67 1203.99,1809.85 1173.95,1842.10">
        <lane id="976_147_0" index="0" allow="rail" speed="27.78" length="2610.00" shape="2944.33,1.38 2711.83,136.73 2398.91,319.92 2357.90,346.02 2312.59,377.92 2274.15,408.05 2238.55,438.69 2199.26,476.04 2158.21,518.70 1696.37,1028.07 1664.58,1065.22 1640.43,1098.79 1614.26,1143.46 1455.71,1443.96 1400.82,1545.72 1382.67,1577.00 1363.61,1608.37 1354.41,1622.90 1344.56,1637.97 1324.82,1667.10 1305.47,1693.92 1285.28,1719.72 1262.94,1746.69 1248.93,1762.80 1234.65,1778.78 1220.08,1794.76 1205.16,1810.94 1175.22,1843.08"/>
    </edge>

    <junction id="147" type="priority" x="1173.95" y="1842.10" incLanes="976_147_0 288_147_0" intLanes=":147_0_0 :147_1_0" shape="1176.39,1844.17 1171.71,1839.81 1171.50,1840.03 1176.19,1844.39">
        <request index="0" response="00" foes="00" cont="0"/>
        <request index="1" response="00" foes="00" cont="0"/>
    </junction>
    <junction id="288" type="priority" x="151.27" y="3522.38" incLanes="514_288_0 147_288_0" intLanes=":288_0_0 :288_1_0" shape="148.37,3523.73 154.27,3521.25 154.21,3521.11 148.24,3523.41">
        <request index="0" response="00" foes="00" cont="0"/>
        <request index="1" response="00" foes="00" cont="0"/>
    </junction>
    <junction id="514" type="dead_end" x="1032.93" y="5723.26" incLanes="288_514_0" intLanes="" shape="1032.93,5723.26 1036.11,5722.86 1032.93,5723.26"/>
    <junction id="976" type="dead_end" x="2943.53" y="0.00" incLanes="147_976_0" intLanes="" shape="2943.53,0.00 2941.92,-2.77 2943.53,-0.00"/>

    <connection from="147_288" to="288_514" fromLane="0" toLane="0" via=":288_1_0" dir="s" state="M"/>
    <connection from="288_147" to="147_976" fromLane="0" toLane="0" via=":147_1_0" dir="s" state="M"/>
    <connection from="514_288" to="288_147" fromLane="0" toLane="0" via=":288_0_0" dir="s" state="M"/>
    <connection from="976_147" to="147_288" fromLane="0" toLane="0" via=":147_0_0" dir="s" state="M"/>

    <connection from=":147_0" to="147_288" fromLane="0" toLane="0" dir="s" state="M"/>
    <connection from=":147_1" to="147_976" fromLane="0" toLane="0" dir="s" state="M"/>
    <connection from=":288_0" to="288_147" fromLane="0" toLane="0" dir="s" state="M"/>
    <connection from=":288_1" to="288_514" fromLane="0" toLane="0" dir="s" state="M"/>

</net>
