<?xml version="1.0" encoding="UTF-8"?>
<routes>
	<trip id="trip_0" depart="4860" from="976_147" to="288_514" type="myTrain" />
	<trip id="trip_1" depart="9060" from="514_288" to="147_976" type="myTrain" />
	<trip id="trip_2" depart="12060" from="976_147" to="288_514" type="myTrain" />
	<trip id="trip_3" depart="16260" from="514_288" to="147_976" type="myTrain" />
	<trip id="trip_4" depart="19260" from="976_147" to="288_514" type="myTrain" />
	<trip id="trip_5" depart="23460" from="514_288" to="147_976" type="myTrain" />
	<trip id="trip_6" depart="26460" from="976_147" to="288_514" type="myTrain" />
	<trip id="trip_7" depart="30660" from="514_288" to="147_976" type="myTrain" />
	<trip id="trip_8" depart="33660" from="976_147" to="288_514" type="myTrain" />
	<trip id="trip_9" depart="37860" from="514_288" to="147_976" type="myTrain" />
	<trip id="trip_10" depart="40860" from="976_147" to="288_514" type="myTrain" />
	<trip id="trip_11" depart="45060" from="514_288" to="147_976" type="myTrain" />
	<trip id="trip_12" depart="48060" from="976_147" to="288_514" type="myTrain" />
	<trip id="trip_13" depart="52260" from="514_288" to="147_976" type="myTrain" />
	<trip id="trip_14" depart="55260" from="976_147" to="288_514" type="myTrain" />
	<trip id="trip_15" depart="59460" from="514_288" to="147_976" type="myTrain" />
	<trip id="trip_16" depart="83100" from="976_147" to="288_514" type="myTrain" />
	<trip id="trip_17" depart="86400" from="514_288" to="288_147" type="myTrain" />
	<trip id="trip_18" depart="86880" from="976_147" to="288_514" type="myTrain" />
	<trip id="trip_19" depart="88140" from="976_147" to="288_514" type="myTrain" />
	<trip id="trip_20" depart="89280" from="976_147" to="288_514" type="myTrain" />
	<trip id="trip_21" depart="90660" from="514_288" to="288_147" type="myTrain" />
	<trip id="trip_22" depart="91020" from="147_288" to="288_514" type="myTrain" />
	<trip id="trip_23" depart="93660" from="976_147" to="288_514" type="myTrain" />
	<trip id="trip_24" depart="95760" from="514_288" to="147_976" type="myTrain" />
	<trip id="trip_25" depart="96360" from="976_147" to="288_514" type="myTrain" />
	<trip id="trip_26" depart="99360" from="514_288" to="147_976" type="myTrain" />
	<trip id="trip_27" depart="99840" from="976_147" to="288_514" type="myTrain" />
	<trip id="trip_28" depart="102960" from="514_288" to="147_976" type="myTrain" />
	<trip id="trip_29" depart="103440" from="976_147" to="288_514" type="myTrain" />
	<trip id="trip_30" depart="106560" from="514_288" to="147_976" type="myTrain" />
	<trip id="trip_31" depart="107040" from="976_147" to="288_514" type="myTrain" />
	<trip id="trip_32" depart="110160" from="514_288" to="147_976" type="myTrain" />
	<trip id="trip_33" depart="110640" from="976_147" to="288_514" type="myTrain" />
	<trip id="trip_34" depart="113760" from="514_288" to="147_976" type="myTrain" />
	<trip id="trip_35" depart="114240" from="976_147" to="288_514" type="myTrain" />
	<trip id="trip_36" depart="117360" from="514_288" to="147_976" type="myTrain" />
	<trip id="trip_37" depart="117840" from="976_147" to="288_514" type="myTrain" />
	<trip id="trip_38" depart="120900" from="514_288" to="147_976" type="myTrain" />
	<trip id="trip_39" depart="121440" from="976_147" to="288_514" type="myTrain" />
	<trip id="trip_40" depart="124560" from="514_288" to="147_976" type="myTrain" />
	<trip id="trip_41" depart="124920" from="976_147" to="288_514" type="myTrain" />
	<trip id="trip_42" depart="126660" from="514_288" to="147_976" type="myTrain" />
	<trip id="trip_43" depart="127920" from="976_147" to="147_288" type="myTrain" />
	<trip id="trip_44" depart="192930.0" from="147_976" to="147_976" type="myTrain" />
	<trip id="trip_45" depart="214560" from="147_288" to="288_514" type="myTrain" />
	<trip id="trip_46" depart="216120" from="514_288" to="147_976" type="myTrain" />
	<trip id="trip_47" depart="218100" from="514_288" to="147_976" type="myTrain" />
	<trip id="trip_48" depart="219360" from="514_288" to="288_147" type="myTrain" />
	<trip id="trip_49" depart="219600" from="147_288" to="288_514" type="myTrain" />
</routes>