<?xml version="1.0" encoding="UTF-8"?>
<nodes>
	<node id="288" x="4.392088" y="50.300903" type="priority"/>
	<node id="147" x="4.405998" y="50.285623" type="priority"/>
	<node id="514" x="4.405047" y="50.320542" type="priority"/>
	<node id="976" x="4.430333" y="50.268758" type="priority"/>
</nodes>